data/case69/reduced/59pct/case69_reduced.m
%% case69_reduced -- Opti-KRON reduction of case69
%
%   69 buses reduced to 28 super-nodes (59.4% reduction), 27 branches.
%   Loads are scenario 1 of 1.
%
%   Equivalent branches come from the Kron-reduced admittance matrix, so a
%   negative resistance is possible and is not an error -- an equivalent
%   branch stands in for eliminated network, not for a conductor.
%
%   Bus map -- each super-node and the original buses it represents:
%     1 <- 1 2
%     3 <- 3 28 29 30 31 32 33 34 35 36 37 38 39 40
%     4 <- 4 5 47
%     6 <- 6
%     7 <- 7
%     8 <- 8 51 52
%     9 <- 9
%     10 <- 10
%     11 <- 11 66 67
%     12 <- 12 68 69
%     13 <- 13
%     14 <- 14
%     15 <- 15 16
%     17 <- 17 18 19 20
%     21 <- 21 22 23 24 25 26 27
%     41 <- 41 42 43 44 45 46
%     48 <- 48
%     49 <- 49 50
%     53 <- 53
%     54 <- 54
%     55 <- 55
%     56 <- 56
%     57 <- 57
%     58 <- 58
%     59 <- 59
%     60 <- 60
%     61 <- 61 62 63
%     64 <- 64 65

function mpc = case69_reduced
mpc.version = '2';
mpc.baseMVA = 1;

%% bus data
%	bus_i	type	Pd	Qd	Gs	Bs	area	Vm	Va	baseKV	zone	Vmax	Vmin
mpc.bus = [
	1	3	-0	-0	0	5.4569682106375694e-12	1	1	0	1	1	1.1	0.9;
	3	1	0.01915	0.013640000000000001	-1.078248601515952e-12	1.3091749906379846e-12	1	1	0	1	1	1.1	0.9;
	4	1	-0	-0	6.4659388954169117e-13	-8.9528384705772623e-13	1	1	0	1	1	1.1	0.9;
	6	1	0.00025999999999999998	0.00022000000000000001	-7.1054273576010019e-15	7.1054273576010019e-15	1	1	0	1	1	1.1	0.9;
	7	1	0.0040400000000000002	0.0030000000000000001	0	0	1	1	0	1	1	1.1	0.9;
	8	1	0.011909999999999999	0.0085000000000000006	5.6843418860808015e-14	0	1	1	0	1	1	1.1	0.9;
	9	1	0.0030000000000000001	0.0021999999999999997	-2.8421709430404007e-14	1.4210854715202004e-14	1	1	0	1	1	1.1	0.9;
	10	1	0.0028	0.0019	0	0	1	1	0	1	1	1.1	0.9;
	11	1	0.018099999999999998	0.012999999999999998	3.2329694477084558e-13	-5.3290705182007514e-15	1	1	0	1	1	1.1	0.9;
	12	1	0.0201	0.0144	-9.2725827016693074e-13	-7.1054273576010019e-14	1	1	0	1	1	1.1	0.9;
	13	1	0.00080000000000000004	0.00054999999999999992	0	8.8817841970012523e-16	1	1	0	1	1	1.1	0.9;
	14	1	0.00080000000000000004	0.00054999999999999992	-1.7763568394002505e-15	0	1	1	0	1	1	1.1	0.9;
	15	1	0.0045500000000000002	0.0030000000000000001	4.2632564145606011e-14	-1.2434497875801753e-14	1	1	0	1	1	1.1	0.9;
	17	1	0.0121	0.0070600000000000012	1.2789769243681803e-12	-6.830092047493963e-13	1	1	0	1	1	1.1	0.9;
	21	1	0.017529999999999997	0.012449999999999999	-5.0803805606847163e-13	2.3625545964023331e-13	1	1	0	1	1	1.1	0.9;
	41	1	0.0085600000000000016	0.00579	1.588951192843524e-12	-5.9330318435968366e-13	1	1	0	1	1	1.1	0.9;
	48	1	0.0079000000000000008	0.00564	2.2204460492503131e-14	-1.4210854715202004e-14	1	1	0	1	1	1.1	0.9;
	49	1	0.076939999999999995	0.054900000000000004	8.8817841970012523e-16	-1.4210854715202004e-14	1	1	0	1	1	1.1	0.9;
	53	1	0.00042999999999999999	0.00035	0	3.5527136788005009e-15	1	1	0	1	1	1.1	0.9;
	54	1	0.00264	0.0019	7.1054273576010019e-15	-3.5527136788005009e-15	1	1	0	1	1	1.1	0.9;
	55	1	0.0024000000000000002	0.00172	0	3.5527136788005009e-15	1	1	0	1	1	1.1	0.9;
	56	1	-0	-0	-3.5527136788005009e-15	4.4408920985006262e-16	1	1	0	1	1	1.1	0.9;
	57	1	-0	-0	0	0	1	1	0	1	1	1.1	0.9;
	58	1	-0	-0	0	-1.7763568394002505e-15	1	1	0	1	1	1.1	0.9;
	59	1	0.01	0.0071999999999999998	-7.1054273576010019e-15	-1.7763568394002505e-15	1	1	0	1	1	1.1	0.9;
	60	1	-0	-0	0	0	1	1	0	1	1	1.1	0.9;
	61	1	0.12759999999999999	0.0911	9.5923269327613525e-14	-5.8619775700208265e-14	1	1	0	1	1	1.1	0.9;
	64	1	0.0286	0.020400000000000001	1.2434497875801753e-14	-7.9936057773011271e-15	1	1	0	1	1	1.1	0.9;
];

%% generator data
%	bus	Pg	Qg	Qmax	Qmin	Vg	mBase	status	Pmax	Pmin
mpc.gen = [
	1	0	0	9999	-9999	1	1	1	9999	-9999;
];

%% branch data
%	fbus	tbus	r	x	b	rateA	rateB	rateC	ratio	angle	status	angmin	angmax
mpc.branch = [
	1	3	6.2392528869023047e-05	0.00014974206928565541	0	0	0	0	0	0	1	-360	360;
	3	4	9.3588793303534651e-05	0.0002246131039284832	0	0	0	0	0	0	1	-360	360;
	3	41	0.058287100469444034	0.073548313030803197	0	0	0	0	0	0	1	-360	360;
	4	6	0.024401718040674931	0.013464307729935183	0	0	0	0	0	0	1	-360	360;
	4	48	0.0055217388049085443	0.013520461005917313	0	0	0	0	0	0	1	-360	360;
	6	7	0.023771553499097806	0.012110389853477382	0	0	0	0	0	0	1	-360	360;
	7	8	0.0057525911617239316	0.002932448856844086	0	0	0	0	0	0	1	-360	360;
	8	9	0.0030759516732428386	0.00156605247461248	0	0	0	0	0	0	1	-360	360;
	9	10	0.051099481143729912	0.016889657564844555	0	0	0	0	0	0	1	-360	360;
	9	53	0.01085630002321002	0.0055279780577954466	0	0	0	0	0	0	1	-360	360;
	10	11	0.011679881404281124	0.0038620975369925295	0	0	0	0	0	0	1	-360	360;
	11	12	0.044386045037423036	0.01466848353710733	0	0	0	0	0	0	1	-360	360;
	12	13	0.0642643047350938	0.021213459815467853	0	0	0	0	0	0	1	-360	360;
	13	14	0.065137800139260127	0.02121345981546786	0	0	0	0	0	0	1	-360	360;
	14	15	0.06601129554342644	0.02181242809261048	0	0	0	0	0	0	1	-360	360;
	15	17	0.035626133984212202	0.011779709450471569	0	0	0	0	0	0	1	-360	360;
	17	21	0.055186191784650958	0.018206139923980937	0	0	0	0	0	0	1	-360	360;
	48	49	0.018081354866242898	0.044242542221024278	0	0	0	0	0	0	1	-360	360;
	53	54	0.012665683360411691	0.0064513874850569896	0	0	0	0	0	0	1	-360	360;
	54	55	0.01773195670457637	0.0090281989273476426	0	0	0	0	0	0	1	-360	360;
	55	56	0.017551018370856198	0.0089408493869310105	0	0	0	0	0	0	1	-360	360;
	56	57	0.099204120901746753	0.033298892657397633	0	0	0	0	0	0	1	-360	360;
	57	58	0.048897024874653403	0.016409235092553077	0	0	0	0	0	0	1	-360	360;
	58	59	0.018979807281956827	0.0062766884042237221	0	0	0	0	0	0	1	-360	360;
	59	60	0.024089755396329824	0.0073124043834495089	0	0	0	0	0	0	1	-360	360;
	60	61	0.031664208401029223	0.016128468712642469	0	0	0	0	0	0	1	-360	360;
	61	64	0.059453840759292186	0.030279094260136936	0	0	0	0	0	0	1	-360	360;
];
